Version 4
SHEET 1 2764 980
WIRE 1488 32 1392 32
WIRE 1392 64 1392 32
WIRE 1488 64 1392 64
WIRE 1392 96 1392 64
WIRE 1488 96 1392 96
WIRE 1680 112 1664 112
WIRE 1792 112 1680 112
WIRE 2656 112 1856 112
WIRE 1392 128 1392 96
WIRE 1488 128 1392 128
WIRE 1680 144 1664 144
WIRE 1728 144 1680 144
WIRE 2480 144 1792 144
WIRE 1392 160 1392 128
WIRE 1392 160 944 160
WIRE 1392 176 1392 160
WIRE 1488 176 1392 176
WIRE 1680 176 1648 176
WIRE 1792 176 1680 176
WIRE 2288 176 1856 176
WIRE 1392 208 1392 176
WIRE 1488 208 1392 208
WIRE 1680 208 1664 208
WIRE 1728 208 1680 208
WIRE 2080 208 1792 208
WIRE 1392 240 1392 208
WIRE 1488 240 1392 240
WIRE 1392 272 1392 240
WIRE 1488 272 1392 272
WIRE 2080 272 2080 208
WIRE 2080 272 2032 272
WIRE 2128 272 2080 272
WIRE 2288 272 2288 176
WIRE 2288 272 2240 272
WIRE 2336 272 2288 272
WIRE 2480 272 2480 144
WIRE 2480 272 2432 272
WIRE 2528 272 2480 272
WIRE 2656 272 2656 112
WIRE 2656 272 2608 272
WIRE 2704 272 2656 272
WIRE 2032 320 2032 272
WIRE 2128 320 2128 272
WIRE 2240 320 2240 272
WIRE 2336 320 2336 272
WIRE 2432 320 2432 272
WIRE 2528 320 2528 272
WIRE 2608 320 2608 272
WIRE 2704 320 2704 272
WIRE 2128 400 2128 384
WIRE 2336 400 2336 384
WIRE 2528 400 2528 384
WIRE 2704 400 2704 384
WIRE 944 432 944 160
WIRE 944 576 944 528
FLAG 2032 400 0
FLAG 2128 400 0
FLAG 944 448 VDD
FLAG 944 576 0
FLAG 2240 400 0
FLAG 2336 400 0
FLAG 2432 400 0
FLAG 2528 400 0
FLAG 2608 400 0
FLAG 2704 400 0
SYMBOL res 2016 304 R0
SYMATTR InstName R1
SYMATTR Value 100k
SYMBOL cap 2112 320 R0
SYMATTR InstName C1
SYMATTR Value 100f
SYMBOL voltage 944 432 R0
WINDOW 0 28 18 Left 2
WINDOW 123 0 0 Left 2
WINDOW 39 0 0 Left 2
SYMATTR InstName VDD2
SYMATTR Value 0
SYMBOL func 1600 112 R0
SYMATTR InstName X1
SYMBOL Digital\\inv 1792 48 R0
SYMATTR InstName A1
SYMBOL Digital\\inv 1728 80 R0
SYMATTR InstName A3
SYMBOL Digital\\inv 1792 112 R0
SYMATTR InstName A4
SYMBOL Digital\\inv 1728 144 R0
SYMATTR InstName A5
SYMBOL res 2224 304 R0
SYMATTR InstName R2
SYMATTR Value 100k
SYMBOL cap 2320 320 R0
SYMATTR InstName C2
SYMATTR Value 100f
SYMBOL res 2416 304 R0
SYMATTR InstName R3
SYMATTR Value 100k
SYMBOL cap 2512 320 R0
SYMATTR InstName C3
SYMATTR Value 100f
SYMBOL res 2592 304 R0
SYMATTR InstName R4
SYMATTR Value 100k
SYMBOL cap 2688 320 R0
SYMATTR InstName C4
SYMATTR Value 100f
TEXT 912 600 Left 2 !.tran 0 8n 0 1p
