Version 4
SHEET 1 2300 980
WIRE 512 48 -208 48
WIRE -208 112 -208 48
WIRE 448 112 80 112
WIRE 2144 160 2048 160
WIRE 2240 160 2144 160
WIRE 2144 208 2144 160
WIRE 2240 208 2240 160
WIRE -208 240 -208 192
WIRE 80 240 80 192
WIRE 2240 288 2240 272
FLAG 80 240 0
FLAG -208 240 0
FLAG 2144 288 0
FLAG 2240 288 0
SYMBOL voltage 80 96 R0
SYMATTR InstName V1
SYMATTR Value PULSE(0 1 2n 10p 10p 2n 4n)
SYMBOL voltage -208 96 R0
WINDOW 123 0 0 Left 2
WINDOW 39 0 0 Left 2
SYMATTR InstName V2
SYMATTR Value PULSE(0 1 1n 10p 10p 2n 4n)
SYMBOL res 2128 192 R0
SYMATTR InstName R1
SYMATTR Value 100k
SYMBOL cap 2224 208 R0
SYMATTR InstName C1
SYMATTR Value 100f
SYMBOL Digital\\inv 1984 96 R0
SYMATTR InstName A2
TEXT 96 -40 Left 2 !.tran 0 8n 0 1p
TEXT 96 -72 Left 2 !.include 90nm_bulk.txt
