Version 4
SHEET 1 1180 680
WIRE 32 16 0 16
WIRE 96 16 32 16
WIRE 416 16 224 16
WIRE 432 16 416 16
WIRE 512 16 496 16
WIRE 16 48 0 48
WIRE 96 48 16 48
WIRE 224 48 224 16
WIRE 224 48 160 48
WIRE 512 48 480 48
WIRE 864 48 576 48
WIRE 32 144 32 16
WIRE 96 144 32 144
WIRE 288 144 160 144
WIRE 16 176 16 48
WIRE 160 176 16 176
WIRE 288 176 224 176
WIRE 480 176 480 48
WIRE 480 176 352 176
WIRE 864 192 864 48
WIRE 960 192 864 192
WIRE 960 224 944 224
WIRE 1056 224 1024 224
WIRE 480 256 480 176
WIRE 592 256 480 256
WIRE 80 288 0 288
WIRE 128 288 80 288
WIRE 288 288 192 288
WIRE 592 288 400 288
WIRE 736 288 656 288
WIRE 48 320 0 320
WIRE 176 320 48 320
WIRE 288 320 240 320
WIRE 400 320 400 288
WIRE 400 320 352 320
WIRE 736 320 672 320
WIRE 848 320 800 320
WIRE 848 352 768 352
WIRE 944 352 944 224
WIRE 944 352 912 352
WIRE 80 416 80 288
WIRE 160 416 80 416
WIRE 416 416 416 16
WIRE 480 416 416 416
WIRE 48 448 48 320
WIRE 160 448 48 448
WIRE 480 448 224 448
WIRE 576 448 544 448
WIRE 672 448 672 320
WIRE 672 448 640 448
WIRE 768 528 768 352
WIRE 768 528 0 528
WIRE 0 0 0 0
FLAG 0 16 VIN1
IOPIN 0 16 In
FLAG 0 48 VIN2
IOPIN 0 48 In
FLAG 0 288 VIN3
IOPIN 0 288 In
FLAG 0 320 VIN4
IOPIN 0 320 In
FLAG 0 528 VIN5
IOPIN 0 528 In
FLAG 1056 224 VOUT
IOPIN 1056 224 Out
SYMBOL Digital\\and 128 -32 R0
SYMATTR InstName A1
SYMBOL Digital\\and 320 96 R0
SYMATTR InstName A2
SYMBOL Digital\\and 320 240 R0
SYMATTR InstName A3
SYMBOL Digital\\and 192 368 R0
SYMATTR InstName A4
SYMBOL Digital\\and 512 368 R0
SYMATTR InstName A5
SYMBOL Digital\\and 624 208 R0
SYMATTR InstName A6
SYMBOL Digital\\and 544 -32 R0
SYMATTR InstName A7
SYMBOL Digital\\and 768 240 R0
SYMATTR InstName A9
SYMBOL Digital\\and 880 272 R0
SYMATTR InstName A10
SYMBOL Digital\\and 992 144 R0
SYMATTR InstName A11
SYMBOL Digital\\inv 576 384 R0
SYMATTR InstName A8
SYMBOL Digital\\inv 96 80 R0
SYMATTR InstName A12
SYMBOL Digital\\inv 160 112 R0
SYMATTR InstName A13
SYMBOL Digital\\inv 128 224 R0
SYMATTR InstName A14
SYMBOL Digital\\inv 176 256 R0
SYMATTR InstName A15
SYMBOL Digital\\inv 432 -48 R0
SYMATTR InstName A16
